!****************************************************************************
!
! HyChem model for Jet A POSF10325 (A2)
! Version 2.0 - High temperature chemistry
!
! H. Wang, R. Xu, K. Wang, C.T. Bowman, D.F. Davidson, R.K. Hanson,
! K. Brezinsky, F.N. Egolfopoulos, A physics-based approach to modeling
! real-fuel combustion chemistry - I. Evidence from experiments, and
! thermodynamic, chemical kinetic and statistical considerations,
! Combustion and Flame 193 (2018) 502-519.
!
! R. Xu, K. Wang, S. Banerjee, J. Shao, T. Parise, Y. Zhu, S. Wang,
! A. Movaghar, D.J. Lee, R. Zhao, X. Han, Y. Gao, T. Lu, K. Brezinsky,
! F.N. Egolfopoulos, D.F. Davidson, R.K. Hanson, C.T. Bowman, H. Wang,
! A physics-based approach to modeling real-fuel combustion chemistry -
! II. Reaction kinetic models of jet and rocket fuels,
! Combustion and Flame 193 (2018) 520-537.
!
! Please contact Hai Wang at haiwang@stanford.edu for questions and comments.
!
! Copyright © 2018 · HyChem
!
!****************************************************************************
!
! Model description: Seven reaction steps to describe Jet A POSF10325 thermal
! decomposition and USC Mech IIa as the foundational fuel chemistry model.
! The cracked products considered are C2H4, H2, CH4, C3H6, 1-C4H8, i-C4H8,
! benzene, tuluene, CH3 and H. The oxidation kinetics of these cracking
! products are described by USC Mech IIa.
!
!****************************************************************************
ELEMENTS
O  H  C  N  AR  HE
END
SPECIES
 POSF10325
 C2H4      CH4       C3H6      iC4H8     C4H81     H2        C2H6      CO
 C6H6      C2H2      C6H5CH3   C5H6      pC3H4     aC3H4     CH3       O2
 C4H6      H         OH        HO2       N2        O         H2O       H2O2
 C         CH        CH2       CH2*      AR        HCO       CH2O      CH3O
 CH2OH     CH3OH     CO2       C2O       C2H       H2CC      C2H3      C2H5
 HCCO      HCCOH     CH2CO     CH3CO     CH2CHO    CH2OCH    CH3CHO    CH2OCH2
 C3H3      cC3H4     aC3H5     CH3CCH2   CH3CHCH   nC3H7     iC3H7     C3H8
 CH2CHCO   C2H3CHO   CH3CHOCH2 CH3CH2CHO CH3COCH3  C4H2      nC4H3     iC4H3
 C4H4      nC4H5     iC4H5     C4H5-2    c-C4H5    C4H612    C4H6-2    C4H7
 iC4H7     C4H82     pC4H9     sC4H9     iC4H9     tC4H9     C4H10     iC4H10
 H2C4O     C4H4O     CH2CHCHCHO          CH3CHCHCO           C2H3CHOCH2
 C4H6O23   CH3CHCHCHO          C4H6O25   C5H4O     C5H5O(1,3)          C5H5O(2,4)
 C5H4OH    C5H5OH    C5H5      lC5H7     C6H2      C6H3      l-C6H4    o-C6H4
 C6H5      C6H5CH2   C6H5C2H   C6H5O     C6H5OH    C6H4O2    C6H5CO    C6H5CHO
 C6H5CH2OH OC6H4CH3  HOC6H4CH3 C6H4CH3
 iC4H7-1   C2C*CC    C*C2CC    C8H14
 OH*       CH*       HE
!
END
REACTIONS
!For ChemKin Pro users, please uncomment the following line and comment out the above "REACTIONS" line
!REACTIONS  MAXSP=12
!
!
